[General]
sim-time-limit = 10s
simtime-resolution = 1ns

[Config Adder]
network = AdderTestbench
**.numberGeneratorA.module_delay = 500ms
**.numberGeneratorA.a = -512
**.numberGeneratorA.b = 511
**.numberGeneratorB.module_delay = 500ms
**.numberGeneratorB.a = -512
**.numberGeneratorB.b = 511
**.adder.module_delay = 0ms

[Config Mux]
network = Mux2x1Testbench
**.numberGeneratorA.module_delay = 500ms
**.numberGeneratorA.a = -512
**.numberGeneratorA.b = 511
**.numberGeneratorB.module_delay = 500ms
**.numberGeneratorB.a = -512
**.numberGeneratorB.b = 511
**.selector.module_delay = 500ms
**.selector.trace = "alusrc.trace"
**.selector.signalName = "ALUSrc"
**.selector.size = 1
**.mux2x1.module_delay = 0ms

[Config Register]
network = RegisterTestbench
**.numberGenerator.module_delay = 4ns
**.numberGenerator.offset = 0ns
**.numberGenerator.a = -512
**.numberGenerator.b = 511
**.enable.module_delay = 4ns
**.enable.offset = 0ns
**.enable.trace = "regwrite.trace"
**.enable.signalName = "RegWrite"
**.enable.size = 1
**.register.delay = 0ms
**.clock.period = 4ns

[Config Broadcast]
network = Broadcast
Broadcast.numberOfNeighbors = 5
Broadcast.ng.delay = 500ms

[Config RegisterFile]
network = RegisterFileTestbench
**.clk.period = 2s
**.rs.delay = 2s
**.rs.msgKind = 3
**.rt.delay = 2s
**.rt.msgKind = 4
**.rd.delay = 2s
**.rd.msgKind = 5
**.regFile.delay = 0s
**.sg.signalName = "RegWrite"
**.sg.size = 1
**.sg.delay = 2s
**.sg.trace = "regwrite.trace"
**.rng.a = -512
**.rng.b = 511
**.rng.delay = 2s

